6
mol_34 1
Cl         1.37530        1.46820       -0.47610
C          0.55990        0.03630        0.02660
C         -0.77110       -0.04990       -0.03660
Cl         1.50170       -1.28190        0.61270
H         -1.37250        0.77440       -0.40410
H         -1.29340       -0.94710        0.27750
