9
mol_5 1
C         -0.69890       -0.69310        0.28700
C          0.70190       -0.71770        0.54850
C          1.20680        0.54350        0.77740
S         -0.00370        1.74940        0.67690
C         -1.20920        0.58600        0.32620
H         -1.30190       -1.56870        0.08040
H          1.30870       -1.61460        0.56790
H          2.22890        0.81830        0.99930
H         -2.23250        0.89680        0.16620
