20
mol_62 2
C         -2.76980        0.30110        0.42880
C         -2.09010       -0.15750       -0.85340
C         -0.80590        0.61660       -1.13910
O          0.14300        0.45950       -0.07340
C          0.93420       -0.64610       -0.14270
O          0.89830       -1.49380       -1.02360
C          1.88510       -0.68160        1.02440
C          3.05300        0.25750        0.80090
H         -2.13170        0.12900        1.30130
H         -3.70210       -0.25210        0.58000
H         -3.01170        1.36770        0.38380
H         -1.87080       -1.22740       -0.76460
H         -2.78140       -0.03170       -1.69400
H         -1.02320        1.68740       -1.21830
H         -0.36950        0.31230       -2.09790
H          2.24130       -1.71070        1.14490
H          1.34070       -0.42710        1.94030
H          2.71390        1.29450        0.70800
H          3.59210        0.00120       -0.11720
H          3.75460        0.20100        1.63870
