16
mol_42 1
O         -2.87310        1.00750        0.91470
C         -2.00680       -0.05130        0.52840
C         -0.56250        0.43080        0.53760
C          0.40140       -0.69040        0.15650
C          1.82450       -0.21150        0.16290
C          2.61680       -0.19720       -0.91620
H         -2.74890        1.73470        0.28090
H         -2.30530       -0.39760       -0.46630
H         -2.14740       -0.87520        1.23490
H         -0.31920        0.82680        1.53210
H         -0.45740        1.27740       -0.15330
H          0.31050       -1.51810        0.87010
H          0.13260       -1.08920       -0.82940
H          2.22480        0.13230        1.11510
H          3.64140        0.15600       -0.84730
H          2.26850       -0.53500       -1.88730
