24
mol_31 2
C         -3.44500        0.64020       -0.77930
C         -2.88160        0.29870        0.59160
C         -1.38910        0.09500        0.54940
C         -0.51860        1.17500        0.73850
C          0.86480        0.98940        0.68290
C          1.40270       -0.27960        0.43730
C          2.89470       -0.47640        0.35970
C          3.41840       -0.28070       -1.05490
C          0.53200       -1.35700        0.23510
C         -0.85140       -1.17140        0.29060
H         -3.00340        1.56240       -1.17190
H         -3.24770       -0.16010       -1.50070
H         -4.52860        0.78230       -0.71840
H         -3.12490        1.09810        1.30200
H         -3.36670       -0.60660        0.97660
H         -0.91290        2.17060        0.92830
H          1.52100        1.84410        0.83060
H          3.39510        0.22330        1.04030
H          3.15330       -1.48140        0.71490
H          2.96130       -0.99310       -1.74990
H          4.50250       -0.42940       -1.08100
H          3.20560        0.72940       -1.42120
H          0.92620       -2.34970        0.03020
H         -1.50780       -2.02320        0.12790
