15
mol_13 2
C         -1.85910       -0.48760       -0.47400
C         -1.04470        0.47820        0.37530
C          0.32220        0.81830       -0.22460
C          1.26180       -0.35350       -0.26670
C          2.38780       -0.43750        0.45310
H         -2.85290       -0.62580       -0.03610
H         -1.98810       -0.10320       -1.49080
H         -1.38320       -1.47100       -0.53340
H         -1.61610        1.40780        0.48530
H         -0.92150        0.06140        1.38220
H          0.19610        1.20440       -1.24320
H          0.76450        1.63320        0.36230
H          1.00910       -1.16910       -0.94080
H          3.03340       -1.30690        0.37440
H          2.69090        0.35140        1.13440
