16
mol_60 1
C         -2.26410       -0.16650       -0.44300
C         -0.99160       -0.20800        0.38690
C          0.10060        0.66090       -0.22290
C          1.34040        0.66270        0.64530
O          1.56990        1.58200        1.43110
C          2.26260       -0.52310        0.53580
H         -2.65670        0.85320       -0.50870
H         -3.03390       -0.79800        0.01140
H         -2.08160       -0.53110       -1.45890
H         -1.21130        0.12930        1.40690
H         -0.64820       -1.24580        0.46700
H          0.37260        0.31360       -1.22570
H         -0.24250        1.69700       -0.32660
H          3.16650       -0.33980        1.12350
H          2.55160       -0.66950       -0.50790
H          1.76560       -1.41700        0.91900
