26
mol_24 2
C         -4.25720       -0.19560       -0.83510
C         -3.69830        0.95520       -0.01660
O         -2.85550        0.47190        1.02830
C         -1.52460        0.30090        0.77520
C         -0.89010        0.43020       -0.45750
C          0.49230        0.21890       -0.57190
C          1.25620       -0.12640        0.54280
N          2.64690       -0.35550        0.50890
C          3.48830       -0.27050       -0.58550
O          3.18310        0.04230       -1.73070
C          4.92030       -0.58450       -0.22890
C          0.61490       -0.26150        1.77820
C         -0.76310       -0.05070        1.89020
H         -3.46220       -0.75070       -1.34170
H         -4.95960        0.17180       -1.58870
H         -4.77780       -0.90870       -0.18720
H         -4.53430        1.46730        0.47340
H         -3.20740        1.71210       -0.63810
H         -1.43300        0.68610       -1.36080
H          0.93850        0.33070       -1.55540
H          3.07390       -0.60200        1.39270
H          4.97240       -1.39060        0.50860
H          5.45450       -0.91140       -1.12570
H          5.39860        0.31290        0.17200
H          1.17040       -0.53180        2.67190
H         -1.24730       -0.16030        2.85760
