26
mol_24 1
C          5.00500       -0.11940       -0.69020
C          3.54710       -0.53880       -0.62930
O          2.77990        0.59460       -0.22630
C          1.42910        0.42050       -0.11220
C          0.72440        1.55750        0.28250
C         -0.66480        1.51760        0.43770
C         -1.37330        0.33520        0.19930
N         -2.77130        0.37370        0.37800
C         -3.67310       -0.65880        0.19380
O         -3.42530       -1.79930       -0.18050
C         -5.09200       -0.23360        0.48010
C         -0.66570       -0.80070       -0.19470
C          0.72780       -0.75940       -0.35010
H          5.63910       -0.95630       -0.99590
H          5.34320        0.24240        0.28650
H          5.13990        0.70410       -1.39930
H          3.23120       -0.87880       -1.62230
H          3.43880       -1.35040        0.09950
H          1.26160        2.48380        0.47100
H         -1.17610        2.42500        0.74660
H         -3.15370        1.26500        0.66720
H         -5.69200       -1.11410        0.72770
H         -5.13100        0.45260        1.33100
H         -5.50960        0.25330       -0.40510
H         -1.16630       -1.74380       -0.39110
H          1.22710       -1.67190       -0.65860
