16
mol_42 2
O         -3.06100        0.16350       -0.62780
C         -1.88420        0.76510       -0.10450
C         -0.74070       -0.24060       -0.10730
C          0.54790        0.38050        0.42700
C          1.66960       -0.61770        0.44420
C          2.79700       -0.49060       -0.26680
H         -3.27220       -0.60460       -0.07020
H         -2.09870        1.12150        0.90820
H         -1.64350        1.63120       -0.72890
H         -0.59150       -0.61680       -1.12770
H         -1.02390       -1.11460        0.49350
H          0.81630        1.25370       -0.18020
H          0.39040        0.74150        1.45050
H          1.54790       -1.48790        1.08640
H          3.57700       -1.24390       -0.21050
H          2.96950        0.35980       -0.91930
