30
mol_23 1
C         -2.93110       -3.44450       -0.32080
C         -1.79090       -2.46230       -0.49670
O         -2.11680       -1.26670        0.18800
P         -1.27210        0.09340       -0.09480
S         -1.60400        0.81000       -1.88140
O         -1.96170        1.01190        1.05770
C         -1.42070        2.28910        1.34960
C         -2.49390        3.12690        2.01410
S          0.70740       -0.26130        0.52680
C          1.53430       -0.79700       -0.98130
S          3.17800       -1.47360       -0.61540
C          4.22970       -0.06160       -1.08650
C          4.08690        1.12570       -0.15230
H         -2.71470       -4.38870       -0.82820
H         -3.86120       -3.03120       -0.72490
H         -3.10680       -3.64600        0.74110
H         -1.63120       -2.26580       -1.56050
H         -0.87350       -2.88070       -0.07280
H         -1.07320        2.78340        0.43790
H         -0.57090        2.16770        2.02780
H         -3.35890        3.23990        1.35230
H         -2.11230        4.11950        2.26890
H         -2.85290        2.64100        2.92750
H          0.94640       -1.59600       -1.44010
H          1.60160        0.02530       -1.69810
H          4.01040        0.22810       -2.11910
H          5.26710       -0.41100       -1.06380
H          4.81910        1.89530       -0.41910
H          3.09720        1.58550       -0.22580
H          4.26860        0.84370        0.89000
