18
mol_17 2
C          1.69050       -0.37770        1.15530
C          0.90570        0.56880        0.25850
C         -0.10650       -0.14660       -0.65670
C         -0.77730        0.88500       -1.57090
C         -1.16800       -0.95440        0.10380
O         -1.93480       -0.13630        0.97600
H          2.46620        0.17490        1.69540
H          2.17980       -1.16090        0.56800
H          1.04560       -0.85260        1.90030
H          1.62210        1.11700       -0.36660
H          0.40150        1.31860        0.87960
H          0.44580       -0.84690       -1.29690
H         -1.48050        0.39890       -2.25540
H         -0.03080        1.40750       -2.17880
H         -1.32790        1.63630       -0.99490
H         -0.71770       -1.76250        0.68890
H         -1.86140       -1.42200       -0.60370
H         -1.35240        0.15310        1.69810
