22
mol_51 1
C         -2.01200       -1.09430        1.59110
C         -1.61660       -1.59450        0.21070
C         -1.37610       -0.47220       -0.80180
C         -0.27740        0.53200       -0.43730
C          1.10580       -0.11000       -0.28080
C          2.20410        0.91410        0.01520
C          2.50530        1.76310       -1.14730
C          2.75520        2.45790       -2.09430
H         -2.26940       -1.93970        2.23730
H         -1.19290       -0.54970        2.06990
H         -2.88270       -0.43340        1.53530
H         -2.42160       -2.23440       -0.17110
H         -0.73000       -2.23260        0.29210
H         -2.31340        0.07990       -0.94570
H         -1.13510       -0.92550       -1.77140
H         -0.54550        1.06450        0.48240
H         -0.24330        1.28850       -1.23070
H          1.35510       -0.67850       -1.18550
H          1.08120       -0.82340        0.55090
H          1.91740        1.53600        0.87100
H          3.11550        0.37770        0.30500
H          2.97660        3.07440       -2.93490
