14
mol_45 2
C         -0.28050        1.34380       -0.36300
C         -0.24830       -0.08800        0.15960
C         -1.35420       -0.91980       -0.47860
O          1.00470       -0.70310       -0.19420
C          2.04050       -0.46500        0.64770
O          2.01960        0.21120        1.66290
H         -1.24190        1.82140       -0.15050
H         -0.10620        1.36990       -1.44440
H          0.51100        1.94490        0.09640
H         -0.38820       -0.10080        1.24750
H         -1.31240       -1.95200       -0.11400
H         -1.23450       -0.96600       -1.56680
H         -2.34280       -0.50970       -0.25080
H          2.93310       -0.98710        0.26960
