24
mol_58 2
C         -2.52090       -1.75840        0.00330
C         -1.10390       -1.25620       -0.10640
C         -0.10510       -2.17030       -0.46510
C          1.21900       -1.76440       -0.58180
C          1.58210       -0.43290       -0.34300
C          3.03440       -0.05550       -0.48600
C          0.59050        0.51630        0.02240
C          0.90160        1.87270        0.27480
C         -0.07600        2.80090        0.63330
C         -1.39530        2.39650        0.74950
C         -1.73320        1.06500        0.50680
C         -0.76520        0.10070        0.14180
H         -2.58920       -2.82790       -0.22330
H         -2.89740       -1.61680        1.02150
H         -3.16720       -1.23320       -0.70720
H         -0.35340       -3.21180       -0.65750
H          1.97020       -2.49950       -0.86210
H          3.64900       -0.91580       -0.77280
H          3.15550        0.70490       -1.26420
H          3.42540        0.32130        0.46460
H          1.92540        2.23000        0.19430
H          0.19810        3.83550        0.82010
H         -2.16470        3.11120        1.02820
H         -2.77970        0.78780        0.60870
