23
mol_40 2
C          3.69010        0.23140        0.36020
C          2.32650        0.56320       -0.23880
C          1.22640       -0.31520        0.36810
C         -0.14240        0.02010       -0.23670
C         -1.24500       -0.85310        0.38130
C         -2.61250       -0.65270       -0.29530
C         -3.26720        0.69820        0.01480
I         -3.87250        0.85410        2.06420
H          3.68240        0.40560        1.45730
H          4.46530        0.88180       -0.09710
H          3.95240       -0.82920        0.15870
H          2.10050        1.63460       -0.04570
H          2.36890        0.40490       -1.33860
H          1.46270       -1.38500        0.17500
H          1.19160       -0.15370        1.46830
H         -0.36280        1.09210       -0.04840
H         -0.10820       -0.14850       -1.33560
H         -0.96200       -1.92190        0.26090
H         -1.31960       -0.65180        1.47110
H         -3.29850       -1.46060        0.03930
H         -2.49840       -0.75680       -1.39640
H         -2.59440        1.54110       -0.24130
H         -4.18330        0.80130       -0.60430
